# https://chainz.cryptoid.info/ and whois results
# Lanacoin
IP Address|Subver|Version|ASN|BGP Prefix|CC|Registry|Allocated|AS Name
108.228.153.213|/Lana:1.0.0.1/|60001|7018|108.192.0.0/10|US|arin|2011-01-12|ATT-INTERNET4, US
146.212.120.52|/Lana:1.0.0.1/|60001||||||
159.65.206.24|/Lana:1.0.0.1/|60001|14061|159.65.192.0/20|US|arin|2017-10-24|DIGITALOCEAN-ASN, US
174.58.101.102|/Lana:1.0.0.1/|60001|7922|174.48.0.0/12|US|arin|2008-11-18|COMCAST-7922, US
185.244.212.183|/Lana:1.0.0.1/|60001|9009|185.244.212.0/24|RO|ripencc|2018-02-05|M247, GB
185.82.202.162|/Lana:1.0.0.1/|60001|60117|185.82.202.0/24|AE|ripencc|2014-12-31|HS, AE
189.29.170.154|/Lana:1.0.0.1/|60001|28573|189.29.128.0/18|BR|lacnic|2007-04-02|CLARO S.A., BR
190.2.138.17|/Lana:1.0.0.1/|60001|49981|190.2.128.0/20|CW|lacnic|2006-04-28|WORLDSTREAM, NL
193.164.140.162|/Lana:1.0.0.1/|60001|41427|193.164.140.0/24|SI|ripencc|2006-08-18|MARC-NET_AS, SI
193.77.138.199|/Lana:1.0.0.1/|60001|5603|193.77.128.0/18|SI|ripencc|1993-09-01|SIOL-NET Telekom Slovenije d.d., SI
193.77.158.82|/Lana:1.0.0.1/|60001|5603|193.77.128.0/18|SI|ripencc|1993-09-01|SIOL-NET Telekom Slovenije d.d., SI
195.240.43.231|/Lana:1.0.0.1/|60001|1136|195.240.0.0/17|NL|ripencc|1996-08-19|KPN KPN National, NL
212.35.183.227|/Lana:1.0.0.1/|60001|12389|212.35.182.0/23|RU|ripencc|2011-02-14|ROSTELECOM-AS, RU
216.209.206.4|/Lana:1.0.0.1/|60001|15321|216.209.206.0/24|CA|arin|1999-03-12|GROUPE-MASKATEL-LP, CA
37.24.189.124|/Lana:1.0.0.1/|60001|3209|37.24.128.0/17|DE|ripencc|2011-12-22|VODANET International IP-Backbone of Vodafone, DE
44.226.133.129|/Lana:1.0.0.1/|60001||||||
45.132.247.73|/Lana:1.0.0.1/|60001||||||
45.178.0.13|/Lana:1.0.0.1/|60001|267882|45.178.0.0/24|AR|lacnic|2019-06-04|AGENCIA DE CIENCIA, TECNOLOGIA Y SOCIEDAD SAN LUIS, AR
46.101.235.143|/Lana:1.0.0.1/|60001|14061|46.101.128.0/17|US|ripencc|2010-06-24|DIGITALOCEAN-ASN, US
5.227.30.54|/Lana:1.0.0.1/|60001|8580|5.227.0.0/17|RU|ripencc|2012-09-07|SANDY MTS Nizhniy Novgorod, Russia, RU
51.38.57.53|/Lana:1.0.0.1/|60001||||||
71.205.83.216|/Lana:1.0.0.1/|60001|7922|71.192.0.0/12|US|arin|2005-07-27|COMCAST-7922, US
72.39.191.15|/Lana:1.0.0.1/|60001|7992|72.38.0.0/15|CA|arin|2005-07-22|COGECOWAVE, CA
74.136.37.85|/Lana:1.0.0.1/|60001||||||
77.38.50.61|/Lana:1.0.0.1/|60001|3212|77.38.0.0/17|SI|ripencc|2007-03-22|TELEMACH Broadband Access & Carrier Services, SI
83.31.230.162|/Lana:1.0.0.1/|60001|5617|83.24.0.0/13|PL|ripencc|2003-12-03|TPNET, PL
83.5.116.124|/Lana:1.0.0.1/|60001|5617|83.0.0.0/13|PL|ripencc|2003-12-03|TPNET, PL
84.162.168.51|/Lana:1.0.0.1/|60001|3320|84.128.0.0/10|DE|ripencc|2004-03-10|DTAG Internet service provider operations, DE
84.240.13.156|/Lana:1.0.0.1/|60001|21211|84.240.8.0/21|LT|ripencc|2004-06-03|PENKI-AS LT-01115, Vilnius, LT
86.10.64.40|/Lana:1.0.0.1/|60001|5089|86.10.0.0/17|GB|ripencc|2005-03-29|NTL, GB
86.86.168.91|/Lana:1.0.0.1/|60001|1136|86.80.0.0/12|NL|ripencc|2005-03-23|KPN KPN National, NL
87.209.136.7|/Lana:1.0.0.1/|60001|50266|87.209.0.0/16|NL|ripencc|2005-06-02|TMOBILE-THUIS, NL
87.249.132.206|/Lana:1.0.0.1/|60001|212238|87.249.132.0/24|CZ|ripencc|2005-08-30|CDNEXT, GB
88.198.62.49|/Lana:1.0.0.1/|60001|24940|88.198.0.0/16|DE|ripencc|2005-12-27|HETZNER-AS, DE
89.142.116.209|/Lana:1.0.0.1/|60001|5603|89.142.64.0/18|SI|ripencc|2006-03-03|SIOL-NET Telekom Slovenije d.d., SI
89.142.65.211|/Lana:1.0.0.1/|60001|5603|89.142.64.0/18|SI|ripencc|2006-03-03|SIOL-NET Telekom Slovenije d.d., SI
89.38.97.125|/Lana:1.0.0.1/|60001|49981|89.38.96.0/22|NL|ripencc|2005-11-29|WORLDSTREAM, NL
89.71.156.196|/Lana:1.0.0.1/|60001|6830|89.64.0.0/13|PL|ripencc|2006-02-22|LIBERTYGLOBAL Liberty Global formerly UPC Broadband Holding, aka AORTA, NL
90.41.12.196|/Lana:1.0.0.1/|60001||||||
91.206.16.214|/Lana:1.0.0.1/|60001||||||
92.108.14.218|/Lana:1.0.0.1/|60001|33915|92.108.0.0/15|NL|ripencc|2007-10-23|TNF-AS, NL
93.103.106.15|/Lana:1.0.0.1/|60001|34779|93.103.96.0/19|SI|ripencc|2008-03-14|T-2-AS AS set propagated by T-2 d.o.o., SI
93.103.158.21|/Lana:1.0.0.1/|60001|34779|93.103.128.0/19|SI|ripencc|2008-03-14|T-2-AS AS set propagated by T-2 d.o.o., SI
93.103.20.240|/Lana:1.0.0.1/|60001|34779|93.103.0.0/19|SI|ripencc|2008-03-14|T-2-AS AS set propagated by T-2 d.o.o., SI
95.217.77.209|/Lana:1.0.0.1/|60001|24940|95.217.0.0/16|DE|ripencc|2009-02-24|HETZNER-AS, DE
99.148.47.138|/Lana:1.0.0.1/|60001||||||
