# https://chainz.cryptoid.info/ and whois results
# Lanacoin
IP Address|Subver|Version|ASN|BGP Prefix|CC|Registry|Allocated|AS Name
108.228.153.213|/Lana:1.0.0.1/|60001||||||
159.65.206.24|/Lana:1.0.0.1/|60001||||||
185.82.202.162|/Lana:1.0.0.1/|60001||||||
188.19.162.19|/Lana:1.0.0.1/|60001||||||
188.243.182.166|/Lana:1.0.0.1/|60001||||||
189.29.170.154|/Lana:1.0.0.1/|60001||||||
193.164.140.162|/Lana:1.0.0.1/|60001||||||
193.77.158.82|/Lana:1.0.0.1/|60001||||||
195.240.43.231|/Lana:1.0.0.1/|60001||||||
31.151.47.220|/Lana:1.0.0.1/|60001||||||
45.132.247.73|/Lana:1.0.0.1/|60001||||||
45.178.0.183|/Lana:1.0.0.1/|60001||||||
45.178.0.44|/Lana:1.0.0.1/|60001||||||
46.101.235.143|/Lana:1.0.0.1/|60001||||||
46.138.39.22|/Lana:1.0.0.1/|60001||||||
51.38.57.53|/Lana:1.0.0.1/|60001||||||
62.217.187.65|/Lana:1.0.0.1/|60001||||||
62.74.103.32|/Lana:1.0.0.1/|60001||||||
66.55.78.57|/Lana:1.0.0.1/|60001|8100|66.55.78.0/24|US|arin|2009-10-08|ASN-QUADRANET-GLOBAL, US
77.136.83.42|???|0|15557|77.136.0.0/16|FR|ripencc|2010-08-31|LDCOMNET, FR
77.38.50.61|/Lana:1.0.0.1/|60001|3212|77.38.0.0/17|SI|ripencc|2007-03-22|TELEMACH Broadband Access & Carrier Services, SI
79.184.226.96|/Lana:1.0.0.1/|60001|5617|79.184.0.0/13|PL|ripencc|2007-06-15|TPNET, PL
81.251.130.165|/Lana:1.0.0.1/|60001|3215|81.251.128.0/17|FR|ripencc|2003-02-13|France Telecom - Orange, FR
84.162.172.128|/Lana:1.0.0.1/|60001|3320|84.128.0.0/10|DE|ripencc|2004-03-10|DTAG Internet service provider operations, DE
84.240.13.156|/Lana:1.0.0.1/|60001|21211|84.240.8.0/21|LT|ripencc|2004-06-03|PENKI-AS LT-01115, Vilnius, LT
86.86.168.91|/Lana:1.0.0.1/|60001|1136|86.80.0.0/12|NL|ripencc|2005-03-23|KPN KPN National, NL
87.123.245.122|/Lana:1.0.0.1/|60001|8881|87.123.240.0/21|DE|ripencc|2005-07-27|VERSATEL, DE
87.123.245.124|/Lana:1.0.0.1/|60001|8881|87.123.240.0/21|DE|ripencc|2005-07-27|VERSATEL, DE
87.123.245.146|/Lana:1.0.0.1/|60001|8881|87.123.240.0/21|DE|ripencc|2005-07-27|VERSATEL, DE
88.198.62.49|/Lana:1.0.0.1/|60001|24940|88.198.0.0/16|DE|ripencc|2005-12-27|HETZNER-AS, DE
89.142.125.85|/Lana:1.0.0.1/|60001|5603|89.142.64.0/18|SI|ripencc|2006-03-03|SIOL-NET Telekom Slovenije d.d., SI
89.142.65.211|/Lana:1.0.0.1/|60001||||||
89.71.156.196|/Lana:1.0.0.1/|60001|6830|89.64.0.0/13|PL|ripencc|2006-02-22|LIBERTYGLOBAL Liberty Global formerly UPC Broadband Holding, aka AORTA, NL
93.103.20.240|/Lana:1.0.0.1/|60001|34779|93.103.0.0/19|SI|ripencc|2008-03-14|T-2-AS AS set propagated by T-2 d.o.o., SI
95.217.77.209|/Lana:1.0.0.1/|60001||||||
99.148.47.138|/Lana:1.0.0.1/|60001||||||
