# https://chainz.cryptoid.info/ and whois results
# Lanacoin
IP Address|Subver|Version|ASN|BGP Prefix|CC|Registry|Allocated|AS Name
109.213.173.69|/Lana:1.0.0.1/|60001|3215|109.213.0.0/16|FR|ripencc|2009-10-07|France Telecom - Orange, FR
146.212.120.52|/Lana:1.0.0.1/|60001|21283|146.212.0.0/16|SI|ripencc|2011-07-13|A1SI-AS A1 Slovenija, SI
148.59.149.52|/Lana:1.0.0.1/|60001|396477|148.59.149.0/24|CA|arin|2017-08-01|DNSNETWORKS, CA
159.65.206.24|/Lana:1.0.0.1/|60001|14061|159.65.192.0/20|US|arin|2017-10-24|DIGITALOCEAN-ASN, US
176.181.162.30|/Lana:1.0.0.1/|60001|5410|176.128.0.0/10|FR|ripencc|2011-07-06|BOUYGTEL-ISP, FR
185.82.202.162|/Lana:1.0.0.1/|60001|60117|185.82.202.0/24|AE|ripencc|2014-12-31|HS, AE
188.17.50.218|/Lana:1.0.0.1/|60001|12389|188.17.0.0/18|RU|ripencc|2009-02-03|ROSTELECOM-AS, RU
188.243.182.166|/Lana:1.0.0.1/|60001|35807|188.242.0.0/15|RU|ripencc|2009-06-23|SKYNET-SPB-AS, RU
189.29.170.154|/Lana:1.0.0.1/|60001|28573|189.29.128.0/18|BR|lacnic|2007-04-02|CLARO S.A., BR
193.164.140.162|/Lana:1.0.0.1/|60001|41427|193.164.140.0/24|SI|ripencc|2006-08-18|MARC-NET_AS, SI
193.77.158.82|/Lana:1.0.0.1/|60001|5603|193.77.128.0/18|SI|ripencc|1993-09-01|SIOL-NET Telekom Slovenije d.d., SI
195.240.43.231|/Lana:1.0.0.1/|60001|1136|195.240.0.0/17|NL|ripencc|1996-08-19|KPN KPN National, NL
2.124.58.196|/Lana:1.0.0.1/|60001|5607|2.120.0.0/13|GB|ripencc|2010-04-14|BSKYB-BROADBAND-AS, GB
37.24.189.124|/Lana:1.0.0.1/|60001|3209|37.24.128.0/17|DE|ripencc|2011-12-22|VODANET International IP-Backbone of Vodafone, DE
45.132.247.73|/Lana:1.0.0.1/|60001|197540|45.132.244.0/22|DE|ripencc|2019-07-24|NETCUP-AS netcup GmbH, DE
45.178.0.37|/Lana:1.0.0.1/|60001|267882|45.178.0.0/24|AR|lacnic|2019-06-04|AGENCIA DE CIENCIA, TECNOLOGIA Y SOCIEDAD SAN LUIS, AR
46.101.235.143|/Lana:1.0.0.1/|60001|14061|46.101.128.0/17|US|ripencc|2010-06-24|DIGITALOCEAN-ASN, US
46.138.39.22|/Lana:1.0.0.1/|60001|25513|46.138.36.0/22|RU|ripencc|2010-11-18|ASN-MGTS-USPD, RU
51.38.57.53|/Lana:1.0.0.1/|60001|16276|51.38.0.0/16|FR|ripencc|1993-09-01|OVH, FR
66.55.78.57|/Lana:1.0.0.1/|60001|8100|66.55.78.0/24|US|arin|2009-10-08|ASN-QUADRANET-GLOBAL, US
71.205.83.216|/Lana:1.0.0.1/|60001|7922|71.192.0.0/12|US|arin|2005-07-27|COMCAST-7922, US
77.38.50.61|/Lana:1.0.0.1/|60001|3212|77.38.0.0/17|SI|ripencc|2007-03-22|TELEMACH Broadband Access & Carrier Services, SI
83.31.6.197|/Lana:1.0.0.1/|60001|5617|83.24.0.0/13|PL|ripencc|2003-12-03|TPNET, PL
84.162.169.184|/Lana:1.0.0.1/|60001|3320|84.128.0.0/10|DE|ripencc|2004-03-10|DTAG Internet service provider operations, DE
84.240.13.156|/Lana:1.0.0.1/|60001|21211|84.240.8.0/21|LT|ripencc|2004-06-03|PENKI-AS LT-01115, Vilnius, LT
86.86.168.91|/Lana:1.0.0.1/|60001|1136|86.80.0.0/12|NL|ripencc|2005-03-23|KPN KPN National, NL
87.123.245.100|/Lana:1.0.0.1/|60001|8881|87.123.240.0/21|DE|ripencc|2005-07-27|VERSATEL, DE
87.123.245.113|/Lana:1.0.0.1/|60001|8881|87.123.240.0/21|DE|ripencc|2005-07-27|VERSATEL, DE
87.123.245.123|/Lana:1.0.0.1/|60001|8881|87.123.240.0/21|DE|ripencc|2005-07-27|VERSATEL, DE
88.198.62.49|/Lana:1.0.0.1/|60001|24940|88.198.0.0/16|DE|ripencc|2005-12-27|HETZNER-AS, DE
89.142.125.85|/Lana:1.0.0.1/|60001|5603|89.142.64.0/18|SI|ripencc|2006-03-03|SIOL-NET Telekom Slovenije d.d., SI
89.142.65.211|/Lana:1.0.0.1/|60001|5603|89.142.64.0/18|SI|ripencc|2006-03-03|SIOL-NET Telekom Slovenije d.d., SI
89.71.156.196|/Lana:1.0.0.1/|60001|6830|89.64.0.0/13|PL|ripencc|2006-02-22|LIBERTYGLOBAL Liberty Global formerly UPC Broadband Holding, aka AORTA, NL
92.108.14.218|/Lana:1.0.0.1/|60001|33915|92.108.0.0/15|NL|ripencc|2007-10-23|TNF-AS, NL
93.103.20.240|/Lana:1.0.0.1/|60001|34779|93.103.0.0/19|SI|ripencc|2008-03-14|T-2-AS AS set propagated by T-2 d.o.o., SI
95.217.77.209|/Lana:1.0.0.1/|60001|24940|95.217.0.0/16|DE|ripencc|2009-02-24|HETZNER-AS, DE
99.148.47.138|/Lana:1.0.0.1/|60001|7018|99.148.0.0/15|US|arin|2007-08-29|ATT-INTERNET4, US
