# https://chainz.cryptoid.info/ and whois results
# Lanacoin
IP Address|Subver|Version|ASN|BGP Prefix|CC|Registry|Allocated|AS Name
109.213.175.36|/Lana:1.0.0.1/|60001|3215|109.213.0.0/16|FR|ripencc|2009-10-07|France Telecom - Orange, FR
117.20.68.171|/Lana:1.0.0.1/|60001|4764|117.20.68.0/22|AU|apnic|2007-06-18|WIDEBAND-AS-AP Aussie Broadband, AU
120.27.17.218|/Lana:1.0.0.1/|60001|37963|120.27.0.0/18|CN|apnic|2008-03-12|ALIBABA-CN-NET Hangzhou Alibaba Advertising Co.,Ltd., CN
146.212.120.52|/Lana:1.0.0.1/|60001|21283|146.212.0.0/16|SI|ripencc|2011-07-13|A1SI-AS A1 Slovenija, SI
159.65.206.24|/Lana:1.0.0.1/|60001|14061|159.65.192.0/20|US|arin|2017-10-24|DIGITALOCEAN-ASN, US
185.82.202.162|/Lana:1.0.0.1/|60001|60117|185.82.202.0/24|AE|ripencc|2014-12-31|HS, AE
188.147.36.147|/Lana:1.0.0.1/|60001|12912|188.146.0.0/15|PL|ripencc|2009-04-01|TM, PL
188.17.50.218|/Lana:1.0.0.1/|60001|12389|188.17.0.0/18|RU|ripencc|2009-02-03|ROSTELECOM-AS, RU
188.243.182.166|/Lana:1.0.0.1/|60001|35807|188.243.0.0/16|RU|ripencc|2009-06-23|SKYNET-SPB-AS, RU
189.29.170.154|/Lana:1.0.0.1/|60001|28573|189.29.128.0/18|BR|lacnic|2007-04-02|CLARO S.A., BR
193.164.140.162|/Lana:1.0.0.1/|60001|41427|193.164.140.0/24|SI|ripencc|2006-08-18|MARC-NET_AS, SI
193.77.158.82|/Lana:1.0.0.1/|60001|5603|193.77.128.0/18|SI|ripencc|1993-09-01|SIOL-NET Telekom Slovenije d.d., SI
37.24.189.124|/Lana:1.0.0.1/|60001|3209|37.24.128.0/17|DE|ripencc|2011-12-22|VODANET International IP-Backbone of Vodafone, DE
45.132.247.73|/Lana:1.0.0.1/|60001|197540|45.132.244.0/22|DE|ripencc|2019-07-24|NETCUP-AS netcup GmbH, DE
45.178.0.37|/Lana:1.0.0.1/|60001|267882|45.178.0.0/24|AR|lacnic|2019-06-04|AGENCIA DE CIENCIA, TECNOLOGIA Y SOCIEDAD SAN LUIS, AR
46.101.235.143|/Lana:1.0.0.1/|60001|14061|46.101.128.0/17|US|ripencc|2010-06-24|DIGITALOCEAN-ASN, US
46.138.39.22|/Lana:1.0.0.1/|60001|25513|46.138.36.0/22|RU|ripencc|2010-11-18|ASN-MGTS-USPD, RU
47.203.92.248|/Lana:1.0.0.1/|60001|5650|47.200.0.0/14|US|arin|2015-08-28|FRONTIER-FRTR, US
51.38.57.53|/Lana:1.0.0.1/|60001|16276|51.38.0.0/16|FR|ripencc|1993-09-01|OVH, FR
66.55.78.57|/Lana:1.0.0.1/|60001|8100|66.55.78.0/24|US|arin|2009-10-08|ASN-QUADRANET-GLOBAL, US
71.205.83.216|/Lana:1.0.0.1/|60001|7922|71.192.0.0/12|US|arin|2005-07-27|COMCAST-7922, US
74.136.37.85|/Lana:1.0.0.1/|60001|10796|74.128.0.0/12|US|arin|2006-04-07|TWC-10796-MIDWEST, US
77.38.50.61|/Lana:1.0.0.1/|60001|3212|77.38.0.0/17|SI|ripencc|2007-03-22|TELEMACH Broadband Access & Carrier Services, SI
83.31.250.125|/Lana:1.0.0.1/|60001|5617|83.24.0.0/13|PL|ripencc|2003-12-03|TPNET, PL
84.162.160.117|/Lana:1.0.0.1/|60001|3320|84.128.0.0/10|DE|ripencc|2004-03-10|DTAG Internet service provider operations, DE
84.162.169.184|/Lana:1.0.0.1/|60001|3320|84.128.0.0/10|DE|ripencc|2004-03-10|DTAG Internet service provider operations, DE
84.240.13.156|/Lana:1.0.0.1/|60001|21211|84.240.8.0/21|LT|ripencc|2004-06-03|PENKI-AS LT-01115, Vilnius, LT
86.86.168.91|/Lana:1.0.0.1/|60001|1136|86.80.0.0/12|NL|ripencc|2005-03-23|KPN KPN National, NL
87.123.245.106|/Lana:1.0.0.1/|60001|8881|87.123.240.0/21|DE|ripencc|2005-07-27|VERSATEL, DE
88.198.62.49|/Lana:1.0.0.1/|60001|24940|88.198.0.0/16|DE|ripencc|2005-12-27|HETZNER-AS, DE
89.142.125.85|/Lana:1.0.0.1/|60001|5603|89.142.64.0/18|SI|ripencc|2006-03-03|SIOL-NET Telekom Slovenije d.d., SI
89.142.65.211|/Lana:1.0.0.1/|60001|5603|89.142.64.0/18|SI|ripencc|2006-03-03|SIOL-NET Telekom Slovenije d.d., SI
89.71.156.196|/Lana:1.0.0.1/|60001|6830|89.64.0.0/13|PL|ripencc|2006-02-22|LIBERTYGLOBAL Liberty Global formerly UPC Broadband Holding, aka AORTA, NL
90.39.197.101|/Lana:1.0.0.1/|60001|3215|90.39.128.0/17|FR|ripencc|2006-03-02|France Telecom - Orange, FR
93.103.20.240|/Lana:1.0.0.1/|60001|34779|93.103.0.0/19|SI|ripencc|2008-03-14|T-2-AS AS set propagated by T-2 d.o.o., SI
94.28.246.26|/Lana:1.0.0.1/|60001|12389|94.28.192.0/18|RU|ripencc|2008-06-19|ROSTELECOM-AS, RU
95.217.77.209|/Lana:1.0.0.1/|60001|24940|95.217.0.0/16|DE|ripencc|2009-02-24|HETZNER-AS, DE
99.148.47.138|/Lana:1.0.0.1/|60001|7018|99.148.0.0/15|US|arin|2007-08-29|ATT-INTERNET4, US
