# https://chainz.cryptoid.info/ and whois results
# PandaCoin
IP Address|Subver|Version|ASN|BGP Prefix|CC|Registry|Allocated|AS Name
1.1.133.254|/Satoshi:0.20.2/Pandacoin:4.10.5/|70015|23969|1.1.128.0/21|TH|apnic|2011-04-08|TOT-NET TOT Public Company Limited, TH
1.47.151.108|/Satoshi:0.20.2/Pandacoin:4.10.5/|70015|24378|1.47.144.0/21|TH|apnic|2010-05-26|ENGTAC-AS-TH-AP Total Access Communication PLC., TH
104.200.16.230|/Satoshi:0.20.2/Pandacoin:4.10.5/|70015|63949|104.200.16.0/21|US|arin|2014-09-26|LINODE-AP Linode, LLC, US
110.170.117.110|/Satoshi:0.20.2/Pandacoin:4.10.5/|70015|7470|110.170.96.0/19|TH|apnic|2009-04-23|TRUEINTERNET-AS-AP TRUE INTERNET Co.,Ltd., TH
116.203.89.106|/Satoshi:0.20.2/Pandacoin:4.10.5/|70015|24940|116.203.0.0/16|DE|ripencc|2011-01-17|HETZNER-AS, DE
118.173.201.24|/Satoshi:0.16.3/Pandacoin:4.9.0/|70015|23969|118.173.200.0/22|TH|apnic|2007-10-08|TOT-NET TOT Public Company Limited, TH
139.177.206.116|/Satoshi:0.20.2/Pandacoin:4.10.5/|70015|63949|139.177.200.0/21|US|arin|2021-03-24|LINODE-AP Linode, LLC, US
171.101.165.28|/Satoshi:0.20.2/Pandacoin:4.10.5/|70015|17552|171.101.128.0/18|TH|apnic|2011-03-07|TRUEONLINE-AS-AP True Online, TH
172.104.178.96|/Satoshi:0.20.2/Pandacoin:4.10.5/|70015|63949|172.104.160.0/19|US|arin|2015-06-19|LINODE-AP Linode, LLC, US
172.245.245.8|/Satoshi:0.20.2/Pandacoin:4.10.5/|70015|36352|172.245.244.0/22|US|arin|2013-04-22|AS-COLOCROSSING, US
172.92.68.151|/Satoshi:0.20.2/Pandacoin:4.10.5/|70015|11404|172.92.0.0/16|US|arin|2015-05-26|AS-WAVE-1, US
185.101.32.62|/Satoshi:0.20.2/Pandacoin:4.10.5/|70015|34989|185.101.32.0/22|NO|ripencc|2015-05-20|SERVETHEWORLD-AS, NO
185.3.35.194|/Satoshi:0.16.3/Pandacoin:4.9.0/|70015|31163|185.3.34.0/23|RU|ripencc|2012-09-19|MF-KAVKAZ-AS, RU
188.2.142.215|/Satoshi:0.20.2/Pandacoin:4.10.5/|70015|31042|188.2.128.0/17|RS|ripencc|2009-02-12|SERBIA-BROADBAND-AS Serbia BroadBand-Srpske Kablovske mreze d.o.o., RS
2.205.41.82|/Satoshi:0.20.2/Pandacoin:4.10.5/|70015|3209|2.200.0.0/13|DE|ripencc|2010-11-18|VODANET International IP-Backbone of Vodafone, DE
213.161.21.113|/Satoshi:0.20.2/Pandacoin:4.10.5/|70015|3212|213.161.0.0/19|SI|ripencc|1999-12-23|TELEMACH Broadband Access & Carrier Services, SI
217.170.204.176|/Satoshi:0.20.2/Pandacoin:4.10.5/|70015|34989|217.170.192.0/20|NO|ripencc|2009-02-11|SERVETHEWORLD-AS, NO
217.170.204.177|/Satoshi:0.20.2/Pandacoin:4.10.5/|70015|34989|217.170.192.0/20|NO|ripencc|2009-02-11|SERVETHEWORLD-AS, NO
217.170.204.178|/Satoshi:0.20.2/Pandacoin:4.10.5/|70015|34989|217.170.192.0/20|NO|ripencc|2009-02-11|SERVETHEWORLD-AS, NO
217.170.204.179|/Satoshi:0.20.2/Pandacoin:4.10.5/|70015|34989|217.170.192.0/20|NO|ripencc|2009-02-11|SERVETHEWORLD-AS, NO
217.170.204.181|/Satoshi:0.20.2/Pandacoin:4.10.5/|70015|34989|217.170.192.0/20|NO|ripencc|2009-02-11|SERVETHEWORLD-AS, NO
217.170.204.184|/Satoshi:0.20.2/Pandacoin:4.10.5/|70015|34989|217.170.192.0/20|NO|ripencc|2009-02-11|SERVETHEWORLD-AS, NO
217.170.204.188|/Satoshi:0.20.2/Pandacoin:4.10.5/|70015|34989|217.170.192.0/20|NO|ripencc|2009-02-11|SERVETHEWORLD-AS, NO
217.170.204.190|/Satoshi:0.20.2/Pandacoin:4.10.5/|70015|34989|217.170.192.0/20|NO|ripencc|2009-02-11|SERVETHEWORLD-AS, NO
217.170.206.18|/Satoshi:0.20.2/Pandacoin:4.10.5/|70015|34989|217.170.192.0/20|NO|ripencc|2009-02-11|SERVETHEWORLD-AS, NO
217.170.206.19|/Satoshi:0.20.2/Pandacoin:4.10.5/|70015|34989|217.170.192.0/20|NO|ripencc|2009-02-11|SERVETHEWORLD-AS, NO
217.170.206.25|/Satoshi:0.20.2/Pandacoin:4.10.5/|70015|34989|217.170.192.0/20|NO|ripencc|2009-02-11|SERVETHEWORLD-AS, NO
217.170.206.28|/Satoshi:0.20.2/Pandacoin:4.10.5/|70015|34989|217.170.192.0/20|NO|ripencc|2009-02-11|SERVETHEWORLD-AS, NO
24.118.50.219|/Satoshi:0.20.2/Pandacoin:4.10.5/|70015|7922|24.118.0.0/16|US|arin|2001-09-17|COMCAST-7922, US
27.55.72.162|/Satoshi:0.20.2/Pandacoin:4.10.5/|70015|132061|27.55.72.0/24|TH|apnic|2010-03-19|REALMOVE-AS-AP Realmove Company Limited, TH
45.195.12.78|???|0|399955|45.195.8.0/21|MU|afrinic|2014-12-01|CLOUDDATA-NETWORKS-1, US
45.56.103.186|/Satoshi:0.20.2/Pandacoin:4.10.5/|70015|63949|45.56.96.0/20|US|arin|2015-01-21|LINODE-AP Linode, LLC, US
45.79.176.81|/Satoshi:0.16.3/Pandacoin:4.9.1/|70015|63949|45.79.176.0/20|US|arin|2015-04-29|LINODE-AP Linode, LLC, US
46.114.37.246|/Satoshi:0.20.2/Pandacoin:4.11.7/|70016|6805|46.114.0.0/15|DE|ripencc|2010-05-11|TDDE-ASN1, DE
47.241.103.99|/Satoshi:0.20.2/Pandacoin:4.10.5/|70015|45102|47.241.0.0/17|US|arin|2016-04-15|ALIBABA-CN-NET Alibaba US Technology Co., Ltd., CN
49.12.76.104|/Satoshi:0.20.2/Pandacoin:4.10.5/|70015|24940|49.12.0.0/16|DE|ripencc|2010-10-21|HETZNER-AS, DE
49.228.199.85|/Satoshi:0.20.2/Pandacoin:4.10.5/|70015|133481|49.228.196.0/22|TH|apnic|2010-11-25|AIS-FIBRE-AS-AP AIS Fibre, TH
49.237.33.161|/Satoshi:0.20.2/Pandacoin:4.10.5/|70015|7470|49.237.0.0/16|TH|apnic|2010-12-06|TRUEINTERNET-AS-AP TRUE INTERNET Co.,Ltd., TH
49.237.9.76|/Satoshi:0.20.2/Pandacoin:4.10.5/|70015|132618|49.237.9.0/24|TH|apnic|2010-12-06|REALFUTURE-AS-AP Real Future Company Limited, TH
67.187.220.126|/Satoshi:0.20.2/Pandacoin:4.10.5/|70015|7922|67.160.0.0/11|US|arin|2002-12-16|COMCAST-7922, US
75.150.121.113|/Satoshi:0.20.2/Pandacoin:4.10.5/|70015|7922|75.144.0.0/13|US|arin|2006-09-25|COMCAST-7922, US
84.168.71.140|/Satoshi:0.20.2/Pandacoin:4.10.5/|70015|3320|84.128.0.0/10|DE|ripencc|2004-03-10|DTAG Internet service provider operations, DE
88.131.213.108|/Satoshi:0.20.2/Pandacoin:4.10.5/|70015|1257|88.131.0.0/16|SE|ripencc|2005-10-24|TELE2, EU
90.243.16.118|/Satoshi:0.20.2/Pandacoin:4.10.5/|70015|5378|90.240.0.0/14|GB|ripencc|2006-09-08|Vodafone, GB
92.218.152.181|/Satoshi:0.20.2/Pandacoin:4.11.7/|70016|3209|92.216.0.0/14|DE|ripencc|2007-10-17|VODANET International IP-Backbone of Vodafone, DE
92.76.127.99|/Satoshi:0.20.2/Pandacoin:4.11.7/|70016|3209|92.72.0.0/13|DE|ripencc|2007-07-27|VODANET International IP-Backbone of Vodafone, DE
93.197.149.19|/Satoshi:0.20.2/Pandacoin:4.10.5/|70015|3320|93.192.0.0/10|DE|ripencc|2008-02-12|DTAG Internet service provider operations, DE
95.217.77.209|/Satoshi:0.20.2/Pandacoin:4.10.5/|70015|24940|95.217.0.0/16|DE|ripencc|2009-02-24|HETZNER-AS, DE
