# https://chainz.cryptoid.info/ and whois results
# PandaCoin
IP Address|Subver|Version|ASN|BGP Prefix|CC|Registry|Allocated|AS Name
104.200.16.230|/Satoshi:0.20.2/Pandacoin:4.10.5/|70015|63949|104.200.16.0/21|US|arin|2014-09-26|LINODE-AP Linode, LLC, US
110.170.117.110|/Satoshi:0.20.2/Pandacoin:4.10.5/|70015|7470|110.170.96.0/19|TH|apnic|2009-04-23|TRUEINTERNET-AS-AP TRUE INTERNET Co.,Ltd., TH
116.203.89.106|/Satoshi:0.20.2/Pandacoin:4.10.5/|70015|24940|116.203.0.0/16|DE|ripencc|2011-01-17|HETZNER-AS, DE
139.177.204.161|/Satoshi:0.20.2/Pandacoin:4.11.7/|70016|63949|139.177.200.0/21|US|arin|2021-03-24|LINODE-AP Linode, LLC, US
139.177.206.116|/Satoshi:0.20.2/Pandacoin:4.10.5/|70015|63949|139.177.200.0/21|US|arin|2021-03-24|LINODE-AP Linode, LLC, US
172.92.68.151|/Satoshi:0.20.2/Pandacoin:4.11.7/|70016|11404|172.92.0.0/16|US|arin|2015-05-26|AS-WAVE-1, US
176.58.123.119|/Satoshi:0.20.2/Pandacoin:4.10.5/|70015|63949|176.58.96.0/19|US|ripencc|2011-06-06|LINODE-AP Linode, LLC, US
185.101.32.19|/Satoshi:0.20.2/Pandacoin:4.10.5/|70015|34989|185.101.32.0/22|NO|ripencc|2015-05-20|SERVETHEWORLD-AS, NO
185.101.32.56|/Satoshi:0.20.2/Pandacoin:4.10.5/|70015|34989|185.101.32.0/22|NO|ripencc|2015-05-20|SERVETHEWORLD-AS, NO
188.167.65.13|/Satoshi:0.20.2/Pandacoin:4.11.7/|70016|6830|188.167.0.0/17|SK|ripencc|2009-06-11|LIBERTYGLOBAL Liberty Global formerly UPC Broadband Holding, aka AORTA, NL
188.2.142.215|/Satoshi:0.20.2/Pandacoin:4.11.7/|70016|31042|188.2.128.0/17|RS|ripencc|2009-02-12|SERBIA-BROADBAND-AS Serbia BroadBand-Srpske Kablovske mreze d.o.o., RS
194.195.215.117|/Satoshi:0.20.2/Pandacoin:4.11.7/|70016|63949|194.195.208.0/21|US|ripencc|1995-09-14|LINODE-AP Linode, LLC, US
199.229.250.132|/Satoshi:0.20.2/Pandacoin:4.10.5/|70015|46562|199.229.250.0/24|US|arin|2012-06-27|PERFORMIVE, US
2.205.40.246|/Satoshi:0.20.2/Pandacoin:4.11.7/|70016|3209|2.200.0.0/13|DE|ripencc|2010-11-18|VODANET International IP-Backbone of Vodafone, DE
2.205.40.77|/Satoshi:0.20.2/Pandacoin:4.11.7/|70016|3209|2.200.0.0/13|DE|ripencc|2010-11-18|VODANET International IP-Backbone of Vodafone, DE
212.228.16.35|/Satoshi:0.16.3/Pandacoin:4.9.1/|70015|5378|212.228.0.0/15|GB|ripencc|1998-03-12|Vodafone, GB
213.161.21.113|/Satoshi:0.20.2/Pandacoin:4.10.5/|70015|3212|213.161.0.0/19|SI|ripencc|1999-12-23|TELEMACH Broadband Access & Carrier Services, SI
217.170.204.195|/Satoshi:0.20.2/Pandacoin:4.10.5/|70015|34989|217.170.192.0/20|NO|ripencc|2009-02-11|SERVETHEWORLD-AS, NO
217.170.206.25|/Satoshi:0.20.2/Pandacoin:4.10.5/|70015|34989|217.170.192.0/20|NO|ripencc|2009-02-11|SERVETHEWORLD-AS, NO
223.24.186.35|/Satoshi:0.20.2/Pandacoin:4.10.5/|70015|132061|223.24.186.0/24|TH|apnic|2010-08-10|REALMOVE-AS-AP Realmove Company Limited, TH
45.79.190.254|/Satoshi:0.20.2/Pandacoin:4.10.5/|70015|63949|45.79.176.0/20|US|arin|2015-04-29|LINODE-AP Linode, LLC, US
49.237.14.185|/Satoshi:0.20.2/Pandacoin:4.10.5/|70015|132618|49.237.14.0/24|TH|apnic|2010-12-06|REALFUTURE-AS-AP Real Future Company Limited, TH
60.119.139.94|/Satoshi:0.16.3/Pandacoin:4.9.0/|70015|17676|60.119.0.0/16|JP|apnic|2004-05-20|GIGAINFRA Softbank BB Corp., JP
62.113.87.165|/Satoshi:0.20.2/Pandacoin:4.11.7/|70016|13155|62.113.87.0/24|RU|ripencc|2000-08-16|MTS-IRK-AS, RU
65.21.152.187|/Satoshi:0.20.2/Pandacoin:4.10.5/|70015|24940|65.21.0.0/16|DE|ripencc|2001-09-26|HETZNER-AS, DE
67.140.100.230|/Satoshi:0.20.2/Pandacoin:4.10.5/|70015|7029|67.140.0.0/15|US|arin|2003-11-18|WINDSTREAM, US
71.81.180.241|/Satoshi:0.20.2/Pandacoin:4.11.7/|70016|20115|71.81.176.0/21|US|arin|2005-05-19|CHARTER-20115, US
73.254.118.233|/Satoshi:0.20.2/Pandacoin:4.10.5/|70015|7922|73.0.0.0/8|US|arin|2005-04-19|COMCAST-7922, US
88.67.81.201|/Satoshi:0.20.2/Pandacoin:4.11.7/|70016|3209|88.64.0.0/12|DE|ripencc|2005-08-15|VODANET International IP-Backbone of Vodafone, DE
92.76.127.37|/Satoshi:0.20.2/Pandacoin:4.11.7/|70016|3209|92.72.0.0/13|DE|ripencc|2007-07-27|VODANET International IP-Backbone of Vodafone, DE
92.78.110.132|/Satoshi:0.20.2/Pandacoin:4.11.7/|70016|3209|92.72.0.0/13|DE|ripencc|2007-07-27|VODANET International IP-Backbone of Vodafone, DE
93.149.163.178|/Satoshi:0.20.2/Pandacoin:4.10.5/|70015|30722|93.149.160.0/20|IT|ripencc|2008-04-11|VODAFONE-IT-ASN, IT
94.209.106.58|/Satoshi:0.16.3/Pandacoin:4.9.0/|70015|33915|94.208.0.0/14|NL|ripencc|2008-07-22|TNF-AS, NL
95.217.77.209|/Satoshi:0.20.2/Pandacoin:4.10.5/|70015|24940|95.217.0.0/16|DE|ripencc|2009-02-24|HETZNER-AS, DE
