# https://chainz.cryptoid.info/ and whois results
# PandaCoin
IP Address|Subver|Version|ASN|BGP Prefix|CC|Registry|Allocated|AS Name
1.2.141.115|/Satoshi:0.20.2/Pandacoin:4.11.7/|70016|23969|1.2.128.0/20|TH|apnic|2011-04-08|TOT-NET TOT Public Company Limited, TH
110.170.117.110|/Satoshi:0.20.2/Pandacoin:4.10.5/|70015|7470|110.170.96.0/19|TH|apnic|2009-04-23|TRUEINTERNET-AS-AP TRUE INTERNET Co.,Ltd., TH
116.203.114.73|/Satoshi:0.20.2/Pandacoin:4.11.7/|70016|24940|116.203.0.0/16|DE|ripencc|2011-01-17|HETZNER-AS, DE
116.203.89.106|/Satoshi:0.20.2/Pandacoin:4.10.5/|70015|24940|116.203.0.0/16|DE|ripencc|2011-01-17|HETZNER-AS, DE
141.126.231.84|/Satoshi:0.20.2/Pandacoin:4.10.5/|70015|20115|141.126.192.0/18|US|arin|2017-01-31|CHARTER-20115, US
157.90.155.61|/Satoshi:0.20.2/Pandacoin:4.10.5/|70015|24940|157.90.0.0/16|DE|ripencc|1996-12-16|HETZNER-AS, DE
161.43.201.255|/Satoshi:0.20.2/Pandacoin:4.10.5/|70015|7474|161.43.192.0/20|AU|apnic|1992-05-18|OPTUSCOM-AS01-AU SingTel Optus Pty Ltd, AU
162.55.185.111|/Satoshi:0.20.2/Pandacoin:4.10.5/|70015|24940|162.55.0.0/16|DE|ripencc|1992-08-03|HETZNER-AS, DE
167.86.118.253|/Satoshi:0.16.3/Pandacoin:4.9.0/|70015|51167|167.86.118.0/23|DE|ripencc|1993-05-14|CONTABO, DE
172.245.245.8|/Satoshi:0.20.2/Pandacoin:4.10.5/|70015|36352|172.245.244.0/22|US|arin|2013-04-22|AS-COLOCROSSING, US
172.92.68.151|/Satoshi:0.20.2/Pandacoin:4.11.7/|70016|11404|172.92.0.0/16|US|arin|2015-05-26|AS-WAVE-1, US
176.58.123.119|/Satoshi:0.20.2/Pandacoin:4.11.7/|70016|63949|176.58.96.0/19|US|ripencc|2011-06-06|LINODE-AP Linode, LLC, US
178.176.215.91|/Satoshi:0.16.3/Pandacoin:4.9.0/|70015|31163|178.176.215.0/24|RU|ripencc|2010-01-22|MF-KAVKAZ-AS, RU
185.117.74.45|/Satoshi:0.16.3/Pandacoin:4.9.0/|70015|60117|185.117.74.0/24|AE|ripencc|2015-09-14|HS, AE
188.167.65.13|/Satoshi:0.20.2/Pandacoin:4.11.7/|70016|6830|188.167.0.0/17|SK|ripencc|2009-06-11|LIBERTYGLOBAL Liberty Global formerly UPC Broadband Holding, aka AORTA, NL
188.2.142.215|/Satoshi:0.20.2/Pandacoin:4.11.7/|70016|31042|188.2.128.0/17|RS|ripencc|2009-02-12|SERBIA-BROADBAND-AS Serbia BroadBand-Srpske Kablovske mreze d.o.o., RS
189.216.48.103|/Satoshi:0.20.2/Pandacoin:4.10.5/|70015|28548|189.216.48.0/22|MX|lacnic|2007-12-05|Cablevision, S.A. de C.V., MX
2.205.41.227|/Satoshi:0.20.2/Pandacoin:4.10.5/|70015|3209|2.200.0.0/13|DE|ripencc|2010-11-18|VODANET International IP-Backbone of Vodafone, DE
213.161.21.113|/Satoshi:0.20.2/Pandacoin:4.10.5/|70015|3212|213.161.0.0/19|SI|ripencc|1999-12-23|TELEMACH Broadband Access & Carrier Services, SI
217.170.206.114|/Satoshi:0.20.2/Pandacoin:4.11.7/|70016|34989|217.170.192.0/20|NO|ripencc|2009-02-11|SERVETHEWORLD-AS, NO
217.170.206.122|/Satoshi:0.20.2/Pandacoin:4.11.7/|70016|34989|217.170.192.0/20|NO|ripencc|2009-02-11|SERVETHEWORLD-AS, NO
24.118.50.219|/Satoshi:0.20.2/Pandacoin:4.11.7/|70016|7922|24.118.0.0/16|US|arin|2001-09-17|COMCAST-7922, US
27.55.93.161|/Satoshi:0.20.2/Pandacoin:4.10.5/|70015|132061|27.55.93.0/24|TH|apnic|2010-03-19|REALMOVE-AS-AP Realmove Company Limited, TH
45.128.36.138|/Satoshi:0.20.2/Pandacoin:4.10.5/|70015|9009|45.128.36.0/24|RO|ripencc|2019-07-11|M247, GB
45.79.193.237|/Satoshi:0.20.2/Pandacoin:4.11.7/|70016|63949|45.79.192.0/19|US|arin|2015-04-29|LINODE-AP Linode, LLC, US
47.241.103.99|/Satoshi:0.20.2/Pandacoin:4.10.5/|70015|45102|47.241.0.0/17|US|arin|2016-04-15|ALIBABA-CN-NET Alibaba US Technology Co., Ltd., CN
65.21.152.187|/Satoshi:0.20.2/Pandacoin:4.10.5/|70015|24940|65.21.0.0/16|DE|ripencc|2001-09-26|HETZNER-AS, DE
66.175.216.64|/Satoshi:0.20.2/Pandacoin:4.11.7/|70016|63949|66.175.216.0/24|US|arin|2012-06-25|LINODE-AP Linode, LLC, US
70.34.198.203|/Satoshi:0.20.2/Pandacoin:4.11.7/|70016|20473|70.34.192.0/19|US|arin|2021-03-04|AS-CHOOPA, US
71.205.83.216|/Satoshi:0.16.3/Pandacoin:4.9.0/|70015|7922|71.192.0.0/12|US|arin|2005-07-27|COMCAST-7922, US
73.100.137.137|/Satoshi:0.20.2/Pandacoin:4.11.7/|70016|7922|73.0.0.0/8|US|arin|2005-04-19|COMCAST-7922, US
73.254.118.233|/Satoshi:0.20.2/Pandacoin:4.10.5/|70015|7922|73.0.0.0/8|US|arin|2005-04-19|COMCAST-7922, US
79.230.150.93|/Satoshi:0.20.2/Pandacoin:4.11.7/|70016|3320|79.192.0.0/10|DE|ripencc|2007-06-06|DTAG Internet service provider operations, DE
84.197.102.188|/Satoshi:0.20.2/Pandacoin:4.11.7/|70016|6848|84.192.0.0/13|BE|ripencc|2004-04-21|TELENET-AS, BE
86.56.92.148|/Satoshi:0.20.2/Pandacoin:4.11.7/|70016|20880|86.56.64.0/18|DE|ripencc|2005-04-13|TELECOLUMBUS, DE
89.178.189.232|/Satoshi:0.20.2/Pandacoin:4.11.7/|70016|8402|89.178.188.0/22|RU|ripencc|2006-03-22|CORBINA-AS OJSC Vimpelcom, RU
93.149.163.178|/Satoshi:0.20.2/Pandacoin:4.11.7/|70016|30722|93.149.160.0/20|IT|ripencc|2008-04-11|VODAFONE-IT-ASN, IT
93.205.93.80|/Satoshi:0.20.2/Pandacoin:4.10.5/|70015|3320|93.192.0.0/10|DE|ripencc|2008-02-12|DTAG Internet service provider operations, DE
95.168.164.215|/Satoshi:0.20.2/Pandacoin:4.11.7/|70016|60781|95.168.160.0/20|NL|ripencc|2009-01-06|LEASEWEB-NL-AMS-01 Netherlands, NL
98.243.131.104|/Satoshi:0.16.3/Pandacoin:4.9.1/|70015|7922|98.192.0.0/10|US|arin|2007-04-20|COMCAST-7922, US
99.23.43.30|/Satoshi:0.20.2/Pandacoin:4.11.7/|70016|7018|99.16.0.0/12|US|arin|2008-02-25|ATT-INTERNET4, US
