# https://chainz.cryptoid.info/ and whois results
# PandaCoin
IP Address|Subver|Version|ASN|BGP Prefix|CC|Registry|Allocated|AS Name
1.46.131.25|/Satoshi:0.20.2/Pandacoin:4.10.5/|70015|24378|1.46.128.0/21|TH|apnic|2010-05-26|ENGTAC-AS-TH-AP Total Access Communication PLC., TH
104.200.16.230|/Satoshi:0.20.2/Pandacoin:4.10.5/|70015|63949|104.200.16.0/21|US|arin|2014-09-26|LINODE-AP Linode, LLC, US
110.170.117.110|/Satoshi:0.20.2/Pandacoin:4.10.5/|70015|7470|110.170.96.0/19|TH|apnic|2009-04-23|TRUEINTERNET-AS-AP TRUE INTERNET Co.,Ltd., TH
116.203.89.106|/Satoshi:0.20.2/Pandacoin:4.10.5/|70015|24940|116.203.0.0/16|DE|ripencc|2011-01-17|HETZNER-AS, DE
139.177.204.161|/Satoshi:0.20.2/Pandacoin:4.10.5/|70015|63949|139.177.200.0/21|US|arin|2021-03-24|LINODE-AP Linode, LLC, US
144.217.103.74|/Satoshi:0.20.2/Pandacoin:4.11.7/|70016|16276|144.217.0.0/16|CA|arin|2016-09-07|OVH, FR
157.90.155.61|/Satoshi:0.20.2/Pandacoin:4.10.5/|70015|24940|157.90.0.0/16|DE|ripencc|1996-12-16|HETZNER-AS, DE
171.101.105.98|/Satoshi:0.20.2/Pandacoin:4.10.5/|70015|17552|171.101.64.0/18|TH|apnic|2011-03-07|TRUEONLINE-AS-AP True Online, TH
172.104.178.96|/Satoshi:0.20.2/Pandacoin:4.10.5/|70015|63949|172.104.160.0/19|US|arin|2015-06-19|LINODE-AP Linode, LLC, US
173.230.142.84|/Satoshi:0.16.3/Pandacoin:4.9.2/|70015|63949|173.230.128.0/20|US|arin|2010-03-15|LINODE-AP Linode, LLC, US
184.22.122.62|/Satoshi:0.20.2/Pandacoin:4.10.5/|70015|133481|184.22.120.0/22|TH|apnic|2001-11-01|AIS-FIBRE-AS-AP AIS Fibre, TH
187.54.219.47|/Satoshi:0.20.2/Pandacoin:4.10.5/|70015|8167|187.54.192.0/18|BR|lacnic|2009-03-13|BRASIL TELECOM COMUNICACAO MULTIMIDIA S.A, BR
188.2.142.215|/Satoshi:0.20.2/Pandacoin:4.10.5/|70015|31042|188.2.128.0/17|RS|ripencc|2009-02-12|SERBIA-BROADBAND-AS Serbia BroadBand-Srpske Kablovske mreze d.o.o., RS
2.205.43.249|/Satoshi:0.20.2/Pandacoin:4.11.7/|70016|3209|2.200.0.0/13|DE|ripencc|2010-11-18|VODANET International IP-Backbone of Vodafone, DE
2.205.47.88|/Satoshi:0.20.2/Pandacoin:4.10.5/|70015|3209|2.200.0.0/13|DE|ripencc|2010-11-18|VODANET International IP-Backbone of Vodafone, DE
212.228.16.35|/Satoshi:0.20.2/Pandacoin:4.10.5/|70015|5378|212.228.0.0/15|GB|ripencc|1998-03-12|Vodafone, GB
213.161.21.113|/Satoshi:0.20.2/Pandacoin:4.10.5/|70015|3212|213.161.0.0/19|SI|ripencc|1999-12-23|TELEMACH Broadband Access & Carrier Services, SI
217.170.203.136|/Satoshi:0.20.2/Pandacoin:4.10.5/|70015|34989|217.170.192.0/20|NO|ripencc|2009-02-11|SERVETHEWORLD-AS, NO
217.170.203.141|/Satoshi:0.20.2/Pandacoin:4.10.5/|70015|34989|217.170.192.0/20|NO|ripencc|2009-02-11|SERVETHEWORLD-AS, NO
217.170.204.176|/Satoshi:0.20.2/Pandacoin:4.10.5/|70015|34989|217.170.192.0/20|NO|ripencc|2009-02-11|SERVETHEWORLD-AS, NO
217.170.204.177|/Satoshi:0.20.2/Pandacoin:4.10.5/|70015|34989|217.170.192.0/20|NO|ripencc|2009-02-11|SERVETHEWORLD-AS, NO
217.170.204.178|/Satoshi:0.20.2/Pandacoin:4.10.5/|70015|34989|217.170.192.0/20|NO|ripencc|2009-02-11|SERVETHEWORLD-AS, NO
217.170.204.179|/Satoshi:0.20.2/Pandacoin:4.10.5/|70015|34989|217.170.192.0/20|NO|ripencc|2009-02-11|SERVETHEWORLD-AS, NO
217.170.204.180|/Satoshi:0.20.2/Pandacoin:4.10.5/|70015|34989|217.170.192.0/20|NO|ripencc|2009-02-11|SERVETHEWORLD-AS, NO
217.170.204.183|/Satoshi:0.20.2/Pandacoin:4.10.5/|70015|34989|217.170.192.0/20|NO|ripencc|2009-02-11|SERVETHEWORLD-AS, NO
217.170.204.184|/Satoshi:0.20.2/Pandacoin:4.10.5/|70015|34989|217.170.192.0/20|NO|ripencc|2009-02-11|SERVETHEWORLD-AS, NO
217.170.204.185|/Satoshi:0.20.2/Pandacoin:4.10.5/|70015|34989|217.170.192.0/20|NO|ripencc|2009-02-11|SERVETHEWORLD-AS, NO
217.170.204.186|/Satoshi:0.20.2/Pandacoin:4.10.5/|70015|34989|217.170.192.0/20|NO|ripencc|2009-02-11|SERVETHEWORLD-AS, NO
217.170.204.187|/Satoshi:0.20.2/Pandacoin:4.10.5/|70015|34989|217.170.192.0/20|NO|ripencc|2009-02-11|SERVETHEWORLD-AS, NO
217.170.204.188|/Satoshi:0.20.2/Pandacoin:4.10.5/|70015|34989|217.170.192.0/20|NO|ripencc|2009-02-11|SERVETHEWORLD-AS, NO
217.170.204.190|/Satoshi:0.20.2/Pandacoin:4.10.5/|70015|34989|217.170.192.0/20|NO|ripencc|2009-02-11|SERVETHEWORLD-AS, NO
223.24.152.149|/Satoshi:0.20.2/Pandacoin:4.10.5/|70015|132061|223.24.152.0/24|TH|apnic|2010-08-10|REALMOVE-AS-AP Realmove Company Limited, TH
223.24.189.137|/Satoshi:0.20.2/Pandacoin:4.10.5/|70015|132061|223.24.189.0/24|TH|apnic|2010-08-10|REALMOVE-AS-AP Realmove Company Limited, TH
27.55.76.36|/Satoshi:0.20.2/Pandacoin:4.10.5/|70015|132061|27.55.76.0/24|TH|apnic|2010-03-19|REALMOVE-AS-AP Realmove Company Limited, TH
45.79.193.237|/Satoshi:0.20.2/Pandacoin:4.10.5/|70015|63949|45.79.192.0/19|US|arin|2015-04-29|LINODE-AP Linode, LLC, US
47.241.103.99|/Satoshi:0.20.2/Pandacoin:4.10.5/|70015|45102|47.241.0.0/17|US|arin|2016-04-15|ALIBABA-CN-NET Alibaba US Technology Co., Ltd., CN
49.228.199.85|/Satoshi:0.20.2/Pandacoin:4.10.5/|70015|133481|49.228.196.0/22|TH|apnic|2010-11-25|AIS-FIBRE-AS-AP AIS Fibre, TH
49.237.15.8|/Satoshi:0.20.2/Pandacoin:4.10.5/|70015|132618|49.237.15.0/24|TH|apnic|2010-12-06|REALFUTURE-AS-AP Real Future Company Limited, TH
49.237.33.123|/Satoshi:0.20.2/Pandacoin:4.10.5/|70015|7470|49.237.0.0/16|TH|apnic|2010-12-06|TRUEINTERNET-AS-AP TRUE INTERNET Co.,Ltd., TH
67.187.220.126|/Satoshi:0.20.2/Pandacoin:4.10.5/|70015|7922|67.160.0.0/11|US|arin|2002-12-16|COMCAST-7922, US
73.100.137.137|/Satoshi:0.20.2/Pandacoin:4.10.5/|70015|7922|73.0.0.0/8|US|arin|2005-04-19|COMCAST-7922, US
78.109.36.163|/Satoshi:0.20.2/Pandacoin:4.10.5/|70015|13155|78.109.36.0/24|RU|ripencc|2007-07-04|MTS-IRK-AS, RU
78.109.36.226|/Satoshi:0.20.2/Pandacoin:4.10.5/|70015|13155|78.109.36.0/24|RU|ripencc|2007-07-04|MTS-IRK-AS, RU
87.100.216.147|/Satoshi:0.20.2/Pandacoin:4.10.5/|70015|16086|87.100.128.0/17|FI|ripencc|2005-09-13|DNA, FI
91.186.71.4|/Satoshi:0.20.2/Pandacoin:4.10.5/|70015|201322|91.186.71.0/24|NO|ripencc|2006-11-08|SYKEHUSPARTNER-AS, NO
93.205.80.57|/Satoshi:0.20.2/Pandacoin:4.10.5/|70015|3320|93.192.0.0/10|DE|ripencc|2008-02-12|DTAG Internet service provider operations, DE
95.17.91.56|/Satoshi:0.20.2/Pandacoin:4.10.5/|70015|12479|95.17.88.0/22|ES|ripencc|2008-11-10|UNI2-AS, ES
98.22.143.226|/Satoshi:0.20.2/Pandacoin:4.10.5/|70015|7029|98.16.0.0/13|US|arin|2007-02-05|WINDSTREAM, US
