# https://chainz.cryptoid.info/ and whois results
# PandaCoin
IP Address|Subver|Version|ASN|BGP Prefix|CC|Registry|Allocated|AS Name
116.203.114.73|/Satoshi:0.20.2/Pandacoin:4.11.7/|70016|24940|116.203.0.0/16|DE|ripencc|2011-01-17|HETZNER-AS, DE
116.203.89.106|/Satoshi:0.20.2/Pandacoin:4.10.5/|70015|24940|116.203.0.0/16|DE|ripencc|2011-01-17|HETZNER-AS, DE
128.90.0.216|/Satoshi:0.20.2/Pandacoin:4.11.7/|70016|22363|128.90.0.0/24|US|arin|1987-12-03|PHMGMT-AS1, US
141.126.231.84|/Satoshi:0.20.2/Pandacoin:4.10.5/|70015|20115|141.126.192.0/18|US|arin|2017-01-31|CHARTER-20115, US
142.132.199.6|/Satoshi:0.20.2/Pandacoin:4.10.5/|70015|24940|142.132.128.0/17|DE|ripencc|1990-03-26|HETZNER-AS, DE
157.90.155.61|/Satoshi:0.20.2/Pandacoin:4.10.5/|70015|24940|157.90.0.0/16|DE|ripencc|1996-12-16|HETZNER-AS, DE
161.43.201.255|/Satoshi:0.20.2/Pandacoin:4.10.5/|70015|7474|161.43.192.0/20|AU|apnic|1992-05-18|OPTUSCOM-AS01-AU SingTel Optus Pty Ltd, AU
162.55.185.111|/Satoshi:0.20.2/Pandacoin:4.10.5/|70015|24940|162.55.0.0/16|DE|ripencc|1992-08-03|HETZNER-AS, DE
171.101.165.28|/Satoshi:0.20.2/Pandacoin:4.11.7/|70016|17552|171.101.128.0/18|TH|apnic|2011-03-07|TRUEONLINE-AS-AP True Online, TH
172.104.100.25|/Satoshi:0.20.2/Pandacoin:4.11.7/|70016|63949|172.104.96.0/19|US|arin|2015-06-19|LINODE-AP Linode, LLC, US
173.254.204.118|/Satoshi:0.20.2/Pandacoin:4.11.7/|70016|8100|173.254.192.0/18|US|arin|2010-10-19|ASN-QUADRANET-GLOBAL, US
176.58.123.119|/Satoshi:0.20.2/Pandacoin:4.11.7/|70016|63949|176.58.96.0/19|US|ripencc|2011-06-06|LINODE-AP Linode, LLC, US
184.22.88.28|/Satoshi:0.20.2/Pandacoin:4.11.7/|70016|133481|184.22.88.0/22|TH|apnic|2001-11-01|AIS-FIBRE-AS-AP AIS Fibre, TH
185.117.74.45|/Satoshi:0.16.3/Pandacoin:4.9.0/|70015|60117|185.117.74.0/24|AE|ripencc|2015-09-14|HS, AE
188.2.142.215|/Satoshi:0.20.2/Pandacoin:4.11.7/|70016|31042|188.2.128.0/17|RS|ripencc|2009-02-12|SERBIA-BROADBAND-AS Serbia BroadBand-Srpske Kablovske mreze d.o.o., RS
189.216.48.103|/Satoshi:0.20.2/Pandacoin:4.10.5/|70015|28548|189.216.48.0/22|MX|lacnic|2007-12-05|Cablevision, S.A. de C.V., MX
2.205.41.227|/Satoshi:0.20.2/Pandacoin:4.11.7/|70016|3209|2.200.0.0/13|DE|ripencc|2010-11-18|VODANET International IP-Backbone of Vodafone, DE
213.161.21.113|/Satoshi:0.20.2/Pandacoin:4.10.5/|70015|3212|213.161.0.0/19|SI|ripencc|1999-12-23|TELEMACH Broadband Access & Carrier Services, SI
217.170.201.242|/Satoshi:0.20.2/Pandacoin:4.11.7/|70016|34989|217.170.192.0/20|NO|ripencc|2009-02-11|SERVETHEWORLD-AS, NO
217.170.201.243|/Satoshi:0.20.2/Pandacoin:4.11.7/|70016|34989|217.170.192.0/20|NO|ripencc|2009-02-11|SERVETHEWORLD-AS, NO
217.170.201.244|/Satoshi:0.20.2/Pandacoin:4.11.7/|70016|34989|217.170.192.0/20|NO|ripencc|2009-02-11|SERVETHEWORLD-AS, NO
217.170.201.245|/Satoshi:0.20.2/Pandacoin:4.11.7/|70016|34989|217.170.192.0/20|NO|ripencc|2009-02-11|SERVETHEWORLD-AS, NO
217.170.201.246|/Satoshi:0.20.2/Pandacoin:4.11.7/|70016|34989|217.170.192.0/20|NO|ripencc|2009-02-11|SERVETHEWORLD-AS, NO
217.170.201.247|/Satoshi:0.20.2/Pandacoin:4.11.7/|70016|34989|217.170.192.0/20|NO|ripencc|2009-02-11|SERVETHEWORLD-AS, NO
217.170.201.248|/Satoshi:0.20.2/Pandacoin:4.11.7/|70016|34989|217.170.192.0/20|NO|ripencc|2009-02-11|SERVETHEWORLD-AS, NO
217.170.201.249|/Satoshi:0.20.2/Pandacoin:4.11.7/|70016|34989|217.170.192.0/20|NO|ripencc|2009-02-11|SERVETHEWORLD-AS, NO
217.170.201.250|/Satoshi:0.20.2/Pandacoin:4.11.7/|70016|34989|217.170.192.0/20|NO|ripencc|2009-02-11|SERVETHEWORLD-AS, NO
217.170.201.251|/Satoshi:0.20.2/Pandacoin:4.11.7/|70016|34989|217.170.192.0/20|NO|ripencc|2009-02-11|SERVETHEWORLD-AS, NO
217.170.201.252|/Satoshi:0.20.2/Pandacoin:4.11.7/|70016|34989|217.170.192.0/20|NO|ripencc|2009-02-11|SERVETHEWORLD-AS, NO
217.170.201.253|/Satoshi:0.20.2/Pandacoin:4.11.7/|70016|34989|217.170.192.0/20|NO|ripencc|2009-02-11|SERVETHEWORLD-AS, NO
217.170.206.122|/Satoshi:0.20.2/Pandacoin:4.11.7/|70016|34989|217.170.192.0/20|NO|ripencc|2009-02-11|SERVETHEWORLD-AS, NO
223.24.62.190|/Satoshi:0.20.2/Pandacoin:4.10.5/|70015|132061|223.24.62.0/24|TH|apnic|2010-08-10|REALMOVE-AS-AP Realmove Company Limited, TH
27.55.74.145|/Satoshi:0.20.2/Pandacoin:4.10.5/|70015|132061|27.55.74.0/24|TH|apnic|2010-03-19|REALMOVE-AS-AP Realmove Company Limited, TH
45.56.103.186|/Satoshi:0.20.2/Pandacoin:4.10.5/|70015|63949|45.56.96.0/20|US|arin|2015-01-21|LINODE-AP Linode, LLC, US
45.79.193.237|/Satoshi:0.20.2/Pandacoin:4.11.7/|70016|63949|45.79.192.0/19|US|arin|2015-04-29|LINODE-AP Linode, LLC, US
46.246.106.37|/Satoshi:0.20.2/Pandacoin:4.11.7/|70016|42708|46.246.0.0/17|SE|ripencc|2011-01-27|PORTLANE www.portlane.com, SE
47.241.103.99|/Satoshi:0.20.2/Pandacoin:4.10.5/|70015|45102|47.241.0.0/17|US|arin|2016-04-15|ALIBABA-CN-NET Alibaba US Technology Co., Ltd., CN
49.12.76.104|/Satoshi:0.20.2/Pandacoin:4.11.7/|70016|24940|49.12.0.0/16|DE|ripencc|2010-10-21|HETZNER-AS, DE
50.96.159.161|/Satoshi:0.20.2/Pandacoin:4.10.5/|70015|7029|50.96.0.0/16|US|arin|2011-03-11|WINDSTREAM, US
65.21.152.187|/Satoshi:0.20.2/Pandacoin:4.10.5/|70015|24940|65.21.0.0/16|DE|ripencc|2001-09-26|HETZNER-AS, DE
66.175.216.64|/Satoshi:0.20.2/Pandacoin:4.11.7/|70016|63949|66.175.216.0/24|US|arin|2012-06-25|LINODE-AP Linode, LLC, US
68.227.129.224|/Satoshi:0.20.2/Pandacoin:4.10.5/|70015|22773|68.227.128.0/20|US|arin|2003-03-19|ASN-CXA-ALL-CCI-22773-RDC, US
70.34.198.203|/Satoshi:0.20.2/Pandacoin:4.11.7/|70016|20473|70.34.192.0/19|US|arin|2021-03-04|AS-CHOOPA, US
71.205.83.216|/Satoshi:0.16.3/Pandacoin:4.9.0/|70015|7922|71.192.0.0/12|US|arin|2005-07-27|COMCAST-7922, US
73.100.137.137|/Satoshi:0.20.2/Pandacoin:4.11.7/|70016|7922|73.0.0.0/8|US|arin|2005-04-19|COMCAST-7922, US
79.230.150.93|/Satoshi:0.20.2/Pandacoin:4.11.7/|70016|3320|79.192.0.0/10|DE|ripencc|2007-06-06|DTAG Internet service provider operations, DE
8.29.105.60|/Satoshi:0.16.3/Pandacoin:4.9.0/|70015|13335|8.29.105.0/24|US|arin|1992-12-01|CLOUDFLARENET, US
8.30.234.126|/Satoshi:0.16.3/Pandacoin:4.9.0/|70015|13335|8.30.234.0/24|US|arin|1992-12-01|CLOUDFLARENET, US
84.197.102.188|/Satoshi:0.20.2/Pandacoin:4.11.7/|70016|6848|84.192.0.0/13|BE|ripencc|2004-04-21|TELENET-AS, BE
86.56.92.148|/Satoshi:0.20.2/Pandacoin:4.11.7/|70016|20880|86.56.64.0/18|DE|ripencc|2005-04-13|TELECOLUMBUS, DE
89.178.189.232|/Satoshi:0.20.2/Pandacoin:4.11.7/|70016|8402|89.178.188.0/22|RU|ripencc|2006-03-22|CORBINA-AS OJSC Vimpelcom, RU
93.149.163.178|/Satoshi:0.20.2/Pandacoin:4.11.7/|70016|30722|93.149.160.0/20|IT|ripencc|2008-04-11|VODAFONE-IT-ASN, IT
95.168.164.215|/Satoshi:0.20.2/Pandacoin:4.11.7/|70016|60781|95.168.160.0/20|NL|ripencc|2009-01-06|LEASEWEB-NL-AMS-01 Netherlands, NL
98.243.131.104|/Satoshi:0.16.3/Pandacoin:4.9.1/|70015|7922|98.192.0.0/10|US|arin|2007-04-20|COMCAST-7922, US
99.23.43.30|/Satoshi:0.20.2/Pandacoin:4.11.7/|70016|7018|99.16.0.0/12|US|arin|2008-02-25|ATT-INTERNET4, US
