# https://chainz.cryptoid.info/ and whois results
# PandaCoin
IP Address|Subver|Version|ASN|BGP Prefix|CC|Registry|Allocated|AS Name
1.1.133.254|/Satoshi:0.20.2/Pandacoin:4.10.5/|70015|23969|1.1.128.0/21|TH|apnic|2011-04-08|TOT-NET TOT Public Company Limited, TH
116.203.89.106|/Satoshi:0.20.2/Pandacoin:4.10.5/|70015|24940|116.203.0.0/16|DE|ripencc|2011-01-17|HETZNER-AS, DE
118.173.201.24|/Satoshi:0.16.3/Pandacoin:4.9.0/|70015|23969|118.173.200.0/22|TH|apnic|2007-10-08|TOT-NET TOT Public Company Limited, TH
139.177.206.116|/Satoshi:0.20.2/Pandacoin:4.10.5/|70015|63949|139.177.200.0/21|US|arin|2021-03-24|LINODE-AP Linode, LLC, US
172.104.178.96|/Satoshi:0.20.2/Pandacoin:4.10.5/|70015|63949|172.104.160.0/19|US|arin|2015-06-19|LINODE-AP Linode, LLC, US
172.245.245.8|/Satoshi:0.20.2/Pandacoin:4.10.5/|70015|36352|172.245.244.0/22|US|arin|2013-04-22|AS-COLOCROSSING, US
172.92.68.151|/Satoshi:0.20.2/Pandacoin:4.10.5/|70015|11404|172.92.0.0/16|US|arin|2015-05-26|AS-WAVE-1, US
185.3.35.194|/Satoshi:0.16.3/Pandacoin:4.9.0/|70015|31163|185.3.34.0/23|RU|ripencc|2012-09-19|MF-KAVKAZ-AS, RU
188.167.65.13|/Satoshi:0.20.2/Pandacoin:4.10.5/|70015|6830|188.167.0.0/17|SK|ripencc|2009-06-11|LIBERTYGLOBAL Liberty Global formerly UPC Broadband Holding, aka AORTA, NL
188.2.142.215|/Satoshi:0.20.2/Pandacoin:4.10.5/|70015|31042|188.2.128.0/17|RS|ripencc|2009-02-12|SERBIA-BROADBAND-AS Serbia BroadBand-Srpske Kablovske mreze d.o.o., RS
189.216.51.231|/Satoshi:0.20.2/Pandacoin:4.10.5/|70015|28548|189.216.48.0/22|MX|lacnic|2007-12-05|Cablevision, S.A. de C.V., MX
213.161.21.113|/Satoshi:0.20.2/Pandacoin:4.10.5/|70015|3212|213.161.0.0/19|SI|ripencc|1999-12-23|TELEMACH Broadband Access & Carrier Services, SI
217.170.204.177|/Satoshi:0.20.2/Pandacoin:4.10.5/|70015|34989|217.170.192.0/20|NO|ripencc|2009-02-11|SERVETHEWORLD-AS, NO
217.170.204.178|/Satoshi:0.20.2/Pandacoin:4.10.5/|70015|34989|217.170.192.0/20|NO|ripencc|2009-02-11|SERVETHEWORLD-AS, NO
217.170.204.179|/Satoshi:0.20.2/Pandacoin:4.10.5/|70015|34989|217.170.192.0/20|NO|ripencc|2009-02-11|SERVETHEWORLD-AS, NO
217.170.206.18|/Satoshi:0.20.2/Pandacoin:4.10.5/|70015|34989|217.170.192.0/20|NO|ripencc|2009-02-11|SERVETHEWORLD-AS, NO
217.170.206.19|/Satoshi:0.20.2/Pandacoin:4.10.5/|70015|34989|217.170.192.0/20|NO|ripencc|2009-02-11|SERVETHEWORLD-AS, NO
217.170.206.25|/Satoshi:0.20.2/Pandacoin:4.10.5/|70015|34989|217.170.192.0/20|NO|ripencc|2009-02-11|SERVETHEWORLD-AS, NO
24.118.50.219|/Satoshi:0.20.2/Pandacoin:4.10.5/|70015|7922|24.118.0.0/16|US|arin|2001-09-17|COMCAST-7922, US
27.55.76.48|/Satoshi:0.20.2/Pandacoin:4.10.5/|70015|132061|27.55.76.0/24|TH|apnic|2010-03-19|REALMOVE-AS-AP Realmove Company Limited, TH
45.195.12.78|/Satoshi:0.20.2/Pandacoin:4.10.5/|70015|399955|45.195.8.0/21|MU|afrinic|2014-12-01|CLOUDDATA-NETWORKS-1, US
45.56.103.186|/Satoshi:0.20.2/Pandacoin:4.10.5/|70015|63949|45.56.96.0/20|US|arin|2015-01-21|LINODE-AP Linode, LLC, US
45.79.176.81|/Satoshi:0.16.3/Pandacoin:4.9.1/|70015|63949|45.79.176.0/20|US|arin|2015-04-29|LINODE-AP Linode, LLC, US
49.12.76.104|/Satoshi:0.20.2/Pandacoin:4.10.5/|70015|24940|49.12.0.0/16|DE|ripencc|2010-10-21|HETZNER-AS, DE
49.237.6.206|/Satoshi:0.20.2/Pandacoin:4.10.5/|70015|132618|49.237.6.0/24|TH|apnic|2010-12-06|REALFUTURE-AS-AP Real Future Company Limited, TH
49.237.9.76|/Satoshi:0.20.2/Pandacoin:4.10.5/|70015|132618|49.237.9.0/24|TH|apnic|2010-12-06|REALFUTURE-AS-AP Real Future Company Limited, TH
58.8.235.75|/Satoshi:0.16.3/Pandacoin:4.9.0/|70015|17552|58.8.192.0/18|TH|apnic|2005-02-08|TRUEONLINE-AS-AP True Online, TH
71.205.83.216|/Satoshi:0.16.3/Pandacoin:4.9.0/|70015|7922|71.192.0.0/12|US|arin|2005-07-27|COMCAST-7922, US
73.254.118.233|/Satoshi:0.20.2/Pandacoin:4.10.5/|70015|7922|73.0.0.0/8|US|arin|2005-04-19|COMCAST-7922, US
75.150.121.113|/Satoshi:0.20.2/Pandacoin:4.10.5/|70015|7922|75.144.0.0/13|US|arin|2006-09-25|COMCAST-7922, US
84.168.71.140|/Satoshi:0.20.2/Pandacoin:4.10.5/|70015|3320|84.128.0.0/10|DE|ripencc|2004-03-10|DTAG Internet service provider operations, DE
87.100.216.147|/Satoshi:0.20.2/Pandacoin:4.10.5/|70015|16086|87.100.128.0/17|FI|ripencc|2005-09-13|DNA, FI
88.131.213.108|/Satoshi:0.20.2/Pandacoin:4.10.5/|70015|1257|88.131.0.0/16|SE|ripencc|2005-10-24|TELE2, EU
91.186.71.4|/Satoshi:0.20.2/Pandacoin:4.10.5/|70015|201322|91.186.71.0/24|NO|ripencc|2006-11-08|SYKEHUSPARTNER-AS, NO
92.218.152.181|/Satoshi:0.20.2/Pandacoin:4.11.7/|70016|3209|92.216.0.0/14|DE|ripencc|2007-10-17|VODANET International IP-Backbone of Vodafone, DE
92.218.152.34|/Satoshi:0.20.2/Pandacoin:4.11.7/|70016|3209|92.216.0.0/14|DE|ripencc|2007-10-17|VODANET International IP-Backbone of Vodafone, DE
93.197.149.19|/Satoshi:0.20.2/Pandacoin:4.10.5/|70015|3320|93.192.0.0/10|DE|ripencc|2008-02-12|DTAG Internet service provider operations, DE
95.17.91.56|/Satoshi:0.20.2/Pandacoin:4.10.5/|70015|12479|95.17.88.0/22|ES|ripencc|2008-11-10|UNI2-AS, ES
95.217.77.209|/Satoshi:0.20.2/Pandacoin:4.10.5/|70015|24940|95.217.0.0/16|DE|ripencc|2009-02-24|HETZNER-AS, DE
96.71.184.110|/Satoshi:0.16.3/Pandacoin:4.9.0/|70015|7922|96.64.0.0/11|US|arin|2008-02-21|COMCAST-7922, US
98.51.95.212|/Satoshi:0.16.3/Pandacoin:4.9.1/|70015|7922|98.32.0.0/11|US|arin|2007-06-06|COMCAST-7922, US
