# https://chainz.cryptoid.info/ and whois results
# SolarCoin
IP Address|Subver|Version|ASN|BGP Prefix|CC|Registry|Allocated|AS Name
104.243.254.35|/Satoshi:2.1.8/|70005|7040|104.243.254.0/24|US|arin|2014-11-25|NETMINDERS, CA
108.180.17.87|/Satoshi:2.1.8/|70005|852|108.180.0.0/16|CA|arin|2012-07-19|TELUS Communications, CA
109.207.192.65|/Satoshi:2.1.8/|70005|43139|109.207.192.0/20|UA|ripencc|2010-03-08|MAXIMUMA-AS, UA
118.209.123.98|/Satoshi:2.1.8/|70005|7545|118.209.96.0/19|AU|apnic|2008-10-13|TPG-INTERNET-AP TPG Telecom Limited, AU
121.99.103.247|/Satoshi:2.1.8/|70005|9790|121.98.0.0/15|NZ|apnic|2010-08-26|VOCUSGROUPNZ VocusGroup, NZ
123.50.69.22|/Satoshi:2.1.8/|70005|9471|123.50.69.0/24|PF|apnic|2006-09-27|ONATI-AS-AP ONATI, PF
13.209.243.246|/Satoshi:2.1.8/|70005|16509|13.209.0.0/16|US|arin|2019-10-01|AMAZON-02, US
15.165.142.140|/SolarCoin:3.14.2/|70005|16509|15.164.0.0/15|US|arin|2018-09-27|AMAZON-02, US
154.6.151.145|/Satoshi:2.1.8/|70005|18345|154.6.151.0/24|US|arin|1992-02-05|SERVERS-AUS-CUST Servers Australia Customers, AU
162.243.214.120|/Satoshi:2.1.8/|70005|14061|162.243.192.0/18|US|arin|2013-09-06|DIGITALOCEAN-ASN, US
162.83.184.45|/Satoshi:2.1.8/|70005|701|162.83.128.0/17|US|arin|1992-08-28|UUNET, US
166.181.85.35|/Satoshi:2.1.8/|70005|6614|166.181.85.0/24|US|arin|1993-07-09|USCC-ASN, US
174.112.251.162|/Satoshi:2.1.8/|70005|812|174.112.0.0/16|CA|arin|2009-03-04|ROGERS-COMMUNICATIONS, CA
178.193.230.79|/Satoshi:2.1.8/|70005|3303|178.192.0.0/15|CH|ripencc|2010-02-24|SWISSCOM Swisscom Switzerland Ltd, CH
185.183.66.35|/Satoshi:2.1.8/|70005|44407|185.183.64.0/22|FR|ripencc|2016-12-21|ASN-LINKT, FR
193.154.86.169|/Satoshi:2.1.8/|70005|1901|193.154.0.0/16|AT|ripencc|1996-03-27|EUNETAT-AS A1 Telekom Austria AG, AT
193.25.22.35|/Satoshi:2.1.8/|70005|680|193.25.16.0/20|DE|ripencc|1993-02-11|DFN Verein zur Foerderung eines Deutschen Forschungsnetzes e.V., DE
194.95.83.201|/Satoshi:2.1.8/|70005|680|194.94.0.0/15|DE|ripencc|1995-08-04|DFN Verein zur Foerderung eines Deutschen Forschungsnetzes e.V., DE
195.65.248.82|/Satoshi:2.1.8/|70005|3303|195.65.0.0/16|CH|ripencc|1997-01-20|SWISSCOM Swisscom Switzerland Ltd, CH
213.143.70.112|/Satoshi:2.1.8/|70005|3212|213.143.64.0/19|SI|ripencc|2000-04-06|TELEMACH Broadband Access & Carrier Services, SI
23.227.150.229|/Satoshi:2.1.8/|70005|55081|23.227.128.0/19|US|arin|2013-09-23|24SHELLS, US
31.220.112.168|/Satoshi:2.1.8/|70005|31317|31.220.112.0/21|DE|ripencc|2011-05-10|ANSCHLUSSWERK, DE
37.120.199.206|/Satoshi:2.1.8/|70005|9009|37.120.199.0/24|RO|ripencc|2012-02-13|M247, GB
45.146.57.237|/Satoshi:2.1.8/|70005|25596|45.146.56.0/22|NL|ripencc|2019-08-27|CAMBRIUM-AS, NL
45.158.172.249|/Satoshi:2.1.8/|70005|20810|45.158.172.0/22|DE|ripencc|2019-09-30|NETCOM-KASSEL Netcom Kassel, DE
46.238.234.86|/Satoshi:2.1.8/|70005|12618|46.238.232.0/22|PL|ripencc|2011-02-08|PL-BYDMAN-COM Commercial Users, PL
47.157.29.29|/Satoshi:2.1.8/|70005|5650|47.157.0.0/16|US|arin|2015-08-28|FRONTIER-FRTR, US
47.196.70.45|/Satoshi:2.1.8/|70005|5650|47.196.0.0/14|US|arin|2015-08-28|FRONTIER-FRTR, US
5.149.43.22|/Satoshi:2.1.8/|70005|15600|5.149.32.0/19|CH|ripencc|2012-07-16|QUICKLINE Quickline AG, CH
5.226.84.123|/Satoshi:2.1.8/|70005|12741|5.226.64.0/18|PL|ripencc|2012-09-07|AS-NETIA Warszawa 02-822, PL
50.220.121.211|/Satoshi:2.1.8/|70005|7922|50.128.0.0/9|US|arin|2010-10-21|COMCAST-7922, US
65.242.59.210|/Satoshi:2.1.8/|70005|701|65.240.0.0/13|US|arin|2002-02-13|UUNET, US
69.119.193.9|/Satoshi:2.1.8/|70005|6128|69.116.0.0/14|US|arin|2004-01-15|CABLE-NET-1, US
72.105.127.77|/Satoshi:2.1.8/|70005|6167|72.105.120.0/21|US|arin|2005-06-28|CELLCO-PART, US
75.198.149.249|/Satoshi:2.1.8/|70005|6167|75.198.128.0/18|US|arin|2006-01-18|CELLCO-PART, US
75.198.246.127|/Satoshi:2.1.8/|70005|6167|75.198.192.0/18|US|arin|2006-01-18|CELLCO-PART, US
76.100.207.21|/Satoshi:2.1.8/|70005|7922|76.96.0.0/11|US|arin|2007-01-02|COMCAST-7922, US
77.126.46.163|/Satoshi:2.1.8/|70005|12400|77.126.32.0/20|IL|ripencc|2006-11-07|PARTNER-AS, IL
77.163.178.222|/Satoshi:2.1.8/|70005|1136|77.160.0.0/13|NL|ripencc|2006-11-02|KPN KPN National, NL
77.251.8.160|/Satoshi:2.1.8/|70005|33915|77.250.0.0/15|NL|ripencc|2007-01-26|TNF-AS, NL
78.77.192.159|/Satoshi:2.1.8/|70005|3301|78.64.0.0/12|SE|ripencc|2007-03-09|TELIANET-SWEDEN Telia Company, SE
79.23.125.8|/Satoshi:2.1.8/|70005|3269|79.22.0.0/15|IT|ripencc|2007-02-21|ASN-IBSNAZ, IT
80.131.116.171|/Satoshi:2.1.8/|70005|3320|80.128.0.0/12|DE|ripencc|2001-08-06|DTAG Internet service provider operations, DE
80.131.120.146|/Satoshi:2.1.8/|70005|3320|80.128.0.0/12|DE|ripencc|2001-08-06|DTAG Internet service provider operations, DE
80.140.58.139|/Satoshi:2.1.8/|70005|3320|80.128.0.0/12|DE|ripencc|2001-08-06|DTAG Internet service provider operations, DE
80.62.117.144|/Satoshi:2.1.8/|70005|3292|80.62.0.0/15|DK|ripencc|2001-06-20|TDC TDC AS, DK
81.140.166.73|/Satoshi:2.1.8/|70005|2856|81.128.0.0/12|GB|ripencc|2002-07-25|BT-UK-AS BTnet UK Regional network, GB
81.225.194.104|/Satoshi:2.1.8/|70005|3301|81.224.0.0/12|SE|ripencc|2002-10-04|TELIANET-SWEDEN Telia Company, SE
81.246.220.222|/Satoshi:2.1.8/|70005|5432|81.244.0.0/14|BE|ripencc|2002-11-29|PROXIMUS-ISP-AS, BE
83.77.236.97|/Satoshi:2.1.8/|70005|3303|83.77.0.0/16|CH|ripencc|2003-12-10|SWISSCOM Swisscom Switzerland Ltd, CH
84.168.20.40|/Satoshi:2.1.8/|70005|3320|84.128.0.0/10|DE|ripencc|2004-03-10|DTAG Internet service provider operations, DE
84.168.28.147|/Satoshi:2.1.8/|70005|3320|84.128.0.0/10|DE|ripencc|2004-03-10|DTAG Internet service provider operations, DE
85.145.247.236|/Satoshi:2.1.8/|70005|50266|85.144.0.0/15|NL|ripencc|2004-10-06|TMOBILE-THUIS, NL
87.123.195.31|/Satoshi:2.1.8/|70005|8881|87.123.195.0/24|DE|ripencc|2005-07-27|VERSATEL, DE
88.130.4.125|/Satoshi:2.1.8/|70005|8881|88.130.0.0/19|DE|ripencc|2005-10-17|VERSATEL, DE
88.130.51.182|/Satoshi:2.1.8/|70005|8881|88.130.51.0/24|DE|ripencc|2005-10-17|VERSATEL, DE
91.0.158.10|/Satoshi:2.1.8/|70005|3320|91.0.0.0/10|DE|ripencc|2006-07-03|DTAG Internet service provider operations, DE
91.206.16.214|/Satoshi:2.1.8/|70005|13259|91.206.16.0/23|RU|ripencc|2008-06-09|DELTA-TELESYSTEMS-AS, RU
93.225.32.75|/Satoshi:2.1.8/|70005|3320|93.192.0.0/10|DE|ripencc|2008-02-12|DTAG Internet service provider operations, DE
93.48.255.43|/Satoshi:2.1.8/|70005|12874|93.48.0.0/13|IT|ripencc|2008-02-25|FASTWEB, IT
93.73.22.99|/Satoshi:2.1.8/|70005|25229|93.73.0.0/16|UA|ripencc|2008-04-04|VOLIA-AS, UA
94.30.0.250|/Satoshi:2.1.8/|70005|5413|94.30.0.0/17|GB|ripencc|2008-07-16|AS5413, GB
95.217.78.80|/Satoshi:2.1.8/|70005|24940|95.217.0.0/16|DE|ripencc|2009-02-24|HETZNER-AS, DE
